/*--------------------------------*- C++ -*----------------------------------*\
  =========                 |
  \\      /  F ield         | OpenFOAM: The Open Source CFD Toolbox
   \\    /   O peration     | Website:  https://openfoam.org
    \\  /    A nd           | Version:  8
     \\/     M anipulation  |
\*---------------------------------------------------------------------------*/
FoamFile
{
    version     2.0;
    format      ascii;
    class       polyBoundaryMesh;
    location    "constant/polyMesh";
    object      boundary;
}
// * * * * * * * * * * * * * * * * * * * * * * * * * * * * * * * * * * * * * //

8
(
    back
    {
        type            empty;
        inGroups        List<word> 1(empty);
        nFaces          63579;
        startFace       94454;
    }
    front
    {
        type            empty;
        inGroups        List<word> 1(empty);
        nFaces          63579;
        startFace       158033;
    }
    airfoil
    {
        type            wall;
        inGroups        List<word> 1(wall);
        nFaces          1415;
        startFace       221612;
    }
    inlet
    {
        type            patch;
        physicalType    patch;
        nFaces          63;
        startFace       223027;
    }
    bottom
    {
        type            patch;
        physicalType    patch;
        nFaces          79;
        startFace       223090;
    }
    outlet
    {
        type            patch;
        physicalType    patch;
        nFaces          24;
        startFace       223169;
    }
    top
    {
        type            patch;
        physicalType    patch;
        nFaces          79;
        startFace       223193;
    }
    procBoundary0to1
    {
        type            processor;
        inGroups        List<word> 1(processor);
        nFaces          169;
        startFace       223272;
        matchTolerance  0.0001;
        myProcNo        0;
        neighbProcNo    1;
    }
)

// ************************************************************************* //
