/*--------------------------------*- C++ -*----------------------------------*\
  =========                 |
  \\      /  F ield         | OpenFOAM: The Open Source CFD Toolbox
   \\    /   O peration     | Website:  https://openfoam.org
    \\  /    A nd           | Version:  6
     \\/     M anipulation  |
\*---------------------------------------------------------------------------*/
FoamFile
{
    version     2.0;
    format      ascii;
    class       dictionary;
    location    "system";
    object      controlDict;
}
// * * * * * * * * * * * * * * * * * * * * * * * * * * * * * * * * * * * * * //

application     simpleFoam;

startFrom       latestTime;

startTime       0;

stopAt          endTime;

endTime         60;

deltaT          0.001;

writeControl    adjustableRunTime;

writeInterval   5;

purgeWrite      0;

writeFormat     ascii;

writePrecision  4;

writeCompression off;

timeFormat      general;

timePrecision   6;

runTimeModifiable true;

adjustTimeStep  yes;


functions
{
	forces
	{
    		type          forceCoeffs;
    		libs          ("libforces.so");
    		patches       (airfoil);	
     		rho           rhoInf;     
     		rhoInf        1;          
     		CofR          (0 0 0);    
     		liftDir       (0 1 0);
     		dragDir       (1 0 0);
		pitchAxis     (0.247 -0.034 0.5);
     		magUInf       1;
     		lRef          1;
     		Aref          1;
	} 
}

libs 
(
	"libsixDoFRigidBodyMotion.so"
	"libforces.so"
	"libOpenFOAM.so"
	"libincompressibleRASmodels.so"
	"libfvMotionSolvers.so"
);

// ************************************************************************* //

// ************************************************************************* //
