/*--------------------------------*- C++ -*----------------------------------*\
  =========                 |
  \\      /  F ield         | OpenFOAM: The Open Source CFD Toolbox
   \\    /   O peration     | Website:  https://openfoam.org
    \\  /    A nd           | Version:  8
     \\/     M anipulation  |
\*---------------------------------------------------------------------------*/
FoamFile
{
    version     2.0;
    format      ascii;
    class       volScalarField;
    location    "0";
    object      epsilon;
}
// * * * * * * * * * * * * * * * * * * * * * * * * * * * * * * * * * * * * * //

dimensions      [0 2 -3 0 0 0 0];

internalField   uniform 0.3018;

boundaryField
{
    back
    {
        type            empty;
    }
    front
    {
        type            empty;
    }
    airfoil
    {
        type            epsilonWallFunction;
        value           uniform 0.3018;
    }
    inlet
    {
        type            fixedValue;
        value           uniform 0.3018;
    }
    bottom
    {
        type            fixedValue;
        value           uniform 0.3018;
    }
    outlet
    {
        type            zeroGradient;
    }
    top
    {
        type            fixedValue;
        value           uniform 0.3018;
    }
    procBoundary0to1
    {
        type            processor;
        value           uniform 0.3018;
    }
}


// ************************************************************************* //
